%chk=C:\Users\FQY\Desktop\+TNT\+TNT (3).chk
# hf/3-21g geom=connectivity

structure

0 1
 H                 58.66240000   53.90440000   61.85750000
 H                 60.61320000   53.50290000   60.54150000
 H                 61.83300000   52.20490000   61.34690000
 H                 58.66550000   53.35280000   63.65710000
 C                 60.27810000   52.90770000   62.54600000
 C                 60.69410000   52.10550000   63.65770000
 N                 60.93220000   52.84390000   61.28950000
 N                 59.08650000   53.58790000   62.75550000
 N                 59.74870000   51.76900000   64.80020000
 N                 62.03800000   51.49190000   63.66970000
 O                 59.69540000   50.49900000   65.02860000
 O                 59.22800000   52.70050000   65.49000000
 O                 62.89670000   51.67790000   62.67510000
 O                 62.25500000   50.78400000   64.69350000

 1 8 1.0
 2 7 1.0
 3 7 1.0
 4 8 1.0
 5 6 2.0 7 1.0 8 1.0
 6 9 1.0 10 1.0
 7
 8
 9 11 2.0 12 1.0
 10 13 1.0 14 2.0
 11
 12
 13
 14

