#P B3LYP/6-31G* geom=connectivity

Generated by Multiwfn

  0  1
H      1.19266261    0.86698588   -2.22061684
H      1.98529767    0.07031083    1.73328889
H     -2.06257471    1.26017020    1.79374427
H     -1.01716280    1.46357035   -2.22871945
H     -2.81578276   -0.74723045    0.71399648
H      1.22093969   -2.07573215    0.85008878
C      0.68105095    0.49539682   -1.30150853
C      1.07695621    0.13042470    1.04808300
C     -1.31473685    0.83055350    1.08091608
C     -0.80624086    0.90410483   -1.28039394
C     -1.76400610   -0.45543492    0.44876031
C      0.61149048   -1.23426701    0.46223560
N      1.43275141    1.10451099   -0.17702094
N      2.95604536    1.03106474   -0.46650356
N      0.02631550    0.64017011    1.95577994
N     -0.13791221   -0.21577067    3.22174385
N     -1.27977915    1.82917515   -0.03529660
N     -0.46874809    3.12314160    0.22785817
N     -1.77550305   -0.19142911   -1.19638672
N     -3.13537215    0.32479405   -1.65117752
N     -0.82354818   -1.63537099    0.77330736
N     -1.13681880   -2.93472615    0.01568167
N      0.82213449   -1.06704430   -1.06283052
N      2.23819511   -1.52632143   -1.47483881
O      3.72377794    0.55849115    0.44727205
O      3.43446976    1.56371351   -1.52596635
O     -1.14384219   -0.10084149    4.02081717
O      0.91096244   -0.82560203    3.64953547
O      0.27428690    3.14783234    1.28288962
O     -0.28016537    3.94004387   -0.72105713
O     -4.16746892    0.05209505   -0.91059093
O     -3.31806823    1.04649306   -2.70085684
O     -0.24565591   -3.82901120   -0.14388955
O     -2.31734532   -3.05327063   -0.49900302
O      2.93950569   -2.36486237   -0.78375810
O      2.63519518   -1.16484377   -2.65321135
 
       1       7  0.7980
       2       8  0.7407
       3       9  0.7967
       4      10  0.7901
       5      11  0.7859
       6      12  0.8045
       7      10  0.9577      13  0.6390      23  0.3617
       8      12  0.9012      13  0.3356      15  0.6597
       9      11  1.1193      15  0.2993      17  0.5827
      10      17  0.2628      19  0.7260
      11      19  0.2037      21  0.4772
      12      21  0.5231      23  0.4453
      13      14  0.2102
      14      25  0.6023      26  0.6185
      15      16  0.2275
      16      27  0.5788      28  0.5974
      17      18  0.2283
      18      29  0.5751      30  0.6855
      19      20  0.2749
      20      31  0.5513      32  0.5798
      21      22  0.2513
      22      33  0.6436      34  0.5641
      23      24  0.2202
      24      35  0.5632      36  0.5676
      25
      26
      27
      28
      29
      30
      31
      32
      33
      34
      35
      36
