#P B3LYP/6-31G* geom=connectivity

Generated by Multiwfn

  0  1
H     -1.92519728    1.65498624    0.10408619
H     -3.31533827    0.21650505    0.30317709
H     -2.78095067   -1.82566260   -0.00828815
H     -0.95957244   -2.41101886   -0.20088732
C     -0.01733705    0.01886875   -0.00335414
C     -1.35202021   -0.34344948    0.09165023
N      0.45288529    1.43036445   -0.09577836
N     -2.33308125    0.62347002    0.17259511
N     -1.73726057   -1.73343464   -0.00653236
N      1.08526213   -1.02577344    0.07586963
O      1.71392013    1.67318561   -0.32156371
O     -0.40621331    2.38259103   -0.05201917
O      2.12912295   -0.78835466    0.75899895
O      0.92849061   -2.11113575   -0.60428388
 
       1       8  0.4270
       2       8  0.5631
       3       9  0.6076
       4       9  0.5763
       5       6  1.5404       7  0.5928      10  0.5226
       6       8  1.0504       9  0.7875
       7      11  0.5264      12  0.6124
       8
       9
      10      13  0.6680      14  0.5823
      11
      12
      13
      14
