%chk=C:\Users\FQY\Desktop\new-inter-20\2.chk
# hf/3-21g geom=connectivity

structure

0 1
 H                 29.69200000   53.18400000   60.43200000
 H                 30.22800000   51.36200000   61.77000000
 H                 31.45200000   52.99500000   65.33400000
 H                 33.43700000   52.85200000   63.95500000
 H                 32.14200000   56.18800000   61.75000000
 H                 30.13400000   56.37000000   63.02900000
 C                 30.23900000   53.53400000   61.34100000
 C                 30.53500000   55.31300000   62.92600000
 C                 30.67200000   52.30800000   62.19400000
 C                 31.28500000   53.37900000   64.29100000
 C                 31.78500000   55.18800000   62.07400000
 C                 32.52300000   53.23500000   63.41100000
 N                 31.10100000   55.27500000   59.59900000
 N                 29.39800000   54.44900000   62.18300000
 N                 30.13500000   51.01300000   64.34400000
 N                 30.18900000   52.37800000   63.62400000
 N                 29.48200000   54.91900000   65.22100000
 N                 28.51900000   55.34800000   61.28900000
 N                 30.76100000   54.80700000   64.35400000
 N                 31.44300000   54.38000000   60.80700000
 N                 32.20600000   52.13500000   62.33300000
 N                 32.98100000   52.24700000   61.02500000
 N                 32.95600000   54.62000000   62.91700000
 N                 34.31300000   54.60100000   62.19000000
 O                 29.73200000   49.98000000   63.70200000
 O                 30.50700000   54.71300000   58.59900000
 O                 32.36900000   52.27900000   59.90200000
 O                 31.68200000   56.40100000   59.44100000
 O                 27.90400000   54.86800000   60.26600000
 O                 30.39700000   50.97600000   65.61200000
 O                 29.38500000   54.18200000   66.26800000
 O                 28.71300000   55.93300000   65.05600000
 O                 34.60300000   55.53200000   61.35500000
 O                 34.26900000   52.14300000   61.05900000
 O                 35.26000000   53.90900000   62.74900000
 O                 28.41100000   56.59200000   61.59300000

 1 7 1.0
 2 9 1.0
 3 10 1.0
 4 12 1.0
 5 11 1.0
 6 8 1.0
 7 9 1.0 14 1.0 20 1.0
 8 11 1.0 14 1.0 19 1.0
 9 16 1.0 21 1.0
 10 12 1.0 16 1.0 19 1.0
 11 20 1.0 23 1.0
 12 21 1.0 23 1.0
 13 20 1.0 26 1.0 28 2.0
 14 18 1.0
 15 16 1.0 25 1.0 30 2.0
 16
 17 19 1.0 31 1.0 32 2.0
 18 29 1.0 36 2.0
 19
 20
 21 22 1.0
 22 27 1.0 34 2.0
 23 24 1.0
 24 33 1.0 35 2.0
 25
 26
 27
 28
 29
 30
 31
 32
 33
 34
 35
 36

