%chk=/home_gsx/users/nsgsx_ln//yzh/Compatibility/gaussian/FOX-7+TNT/Interfacial_3/7.chk
%mem=8000MB
%nproc=12

# b3lyp/TZVP EmpiricalDispersion=GD3BJ

"7selected"

  0  1
H      1.21556596   -3.00372768    0.25030720
H      3.05065221   -1.47842149    0.31797096
H      2.49463118    0.39270388    0.42340193
H     -0.49586306   -2.33043922   -0.15034937
C      1.00942685   -1.01005032    0.00396016
C     -0.00572159   -0.00157062   -0.06604045
N      2.35034414   -0.70104473    0.34625514
N      0.52512618   -2.30652374   -0.10131281
N     -1.48107639   -0.33936484    0.08073465
N      0.36865835    1.42303514   -0.18029570
O     -2.05743422    0.38310033    0.98282288
O     -2.03252401   -1.14618541   -0.73141735
O      1.63779243    1.80622754   -0.24073673
O     -0.62640719    2.20146971   -0.19648354
 





