%chk=C:\Users\FQY\Desktop\IGMH-4532.chk
# hf/3-21g geom=connectivity

"Created by VESTA"

0 1
 H                 52.61000000   48.07800000   37.13300000
 H                 51.78000000   48.34400000   35.56500000
 H                 51.33600000   46.91300000   36.54300000
 H                 56.46800000   46.64300000   34.27200000
 H                 53.23200000   43.89500000   33.07100000
 H                 52.35600000   53.84700000   32.91600000
 H                 50.67400000   53.06600000   32.77800000
 H                 51.60100000   52.95300000   34.31200000
 H                 55.47300000   50.47900000   31.81800000
 H                 51.79300000   48.27000000   32.98100000
 H                 54.43300000   51.38200000   38.86600000
 H                 55.95200000   51.17400000   39.88700000
 H                 54.36500000   51.41500000   40.72900000
 H                 51.60700000   47.62100000   40.36600000
 H                 55.69900000   46.30000000   41.31300000
 H                 59.46100000   47.74900000   35.40700000
 H                 58.82400000   49.45300000   35.82500000
 H                 60.27300000   48.63100000   36.72300000
 H                 63.95300000   50.00700000   34.31700000
 H                 60.81700000   50.86300000   31.45600000
 H                 64.16200000   51.84500000   39.12600000
 H                 63.96200000   50.12400000   38.91600000
 H                 62.69800000   51.20200000   38.16200000
 H                 59.27400000   50.19600000   41.32000000
 H                 62.65500000   51.80600000   43.62800000
 H                 66.52200000   55.99700000   38.16000000
 H                 64.94200000   55.95100000   37.22700000
 H                 65.32100000   54.63500000   38.36300000
 H                 69.42600000   53.49100000   35.05400000
 H                 65.34900000   52.11700000   34.17500000
 H                 57.81300000   53.99400000   34.66700000
 H                 60.87000000   52.97900000   37.24700000
 H                 57.32000000   53.33900000   39.75200000
 H                 55.81900000   54.14000000   36.03600000
 H                 57.26100000   55.46000000   39.55000000
 H                 60.84900000   55.30600000   37.00900000
 C                 53.20800000   46.59300000   35.40600000
 C                 54.54000000   47.07600000   35.23200000
 C                 55.35900000   46.36500000   34.33200000
 C                 54.91400000   45.27100000   33.50500000
 C                 53.57800000   44.78600000   33.69900000
 C                 52.75200000   45.40100000   34.72700000
 C                 52.21600000   47.52000000   36.20000000
 C                 52.43800000   51.64600000   32.85100000
 C                 53.79100000   51.73400000   32.39000000
 C                 54.40300000   50.48600000   32.22000000
 C                 53.71000000   49.23700000   32.35300000
 C                 52.37200000   49.21300000   32.83800000
 C                 51.70400000   50.42500000   33.07500000
 C                 51.71500000   52.97700000   33.21400000
 C                 54.49300000   49.39100000   40.04200000
 C                 53.11200000   49.10000000   39.91400000
 C                 52.69800000   47.81700000   40.31600000
 C                 53.57200000   46.96600000   41.04700000
 C                 54.99200000   47.12600000   40.99000000
 C                 55.42500000   48.35400000   40.45000000
 C                 54.85500000   50.88200000   39.83300000
 C                 60.68600000   49.45300000   34.59900000
 C                 62.05500000   49.49000000   35.01800000
 C                 62.86600000   50.17200000   34.09300000
 C                 62.46800000   50.63700000   32.81300000
 C                 61.10000000   50.50500000   32.46500000
 C                 60.17100000   49.84700000   33.31700000
 C                 59.78000000   48.80500000   35.72100000
 C                 62.52100000   51.02900000   40.35400000
 C                 61.16200000   50.49200000   40.21400000
 C                 60.32000000   50.55100000   41.37600000
 C                 60.78100000   51.07500000   42.58300000
 C                 62.17500000   51.41300000   42.70300000
 C                 63.07900000   51.26800000   41.64800000
 C                 63.36100000   51.05600000   39.09000000
 C                 66.40600000   54.49500000   36.37300000
 C                 67.80000000   54.62700000   36.02100000
 C                 68.32500000   53.61200000   35.19700000
 C                 67.50800000   52.61900000   34.59000000
 C                 66.05900000   52.79800000   34.72400000
 C                 65.53000000   53.53300000   35.82200000
 C                 65.79900000   55.31500000   37.59100000
 C                 58.02300000   53.97900000   35.75600000
 C                 59.79500000   53.31300000   37.33000000
 C                 57.72900000   53.45100000   38.71400000
 C                 56.79400000   54.06100000   36.63700000
 C                 57.70700000   54.98200000   38.63700000
 C                 59.79800000   54.87200000   37.18700000
 N                 55.09900000   48.21600000   36.07500000
 N                 55.75100000   44.60100000   32.46700000
 N                 51.43100000   44.75500000   34.99300000
 N                 54.58500000   53.05800000   32.31000000
 N                 54.37000000   47.98400000   31.83700000
 N                 50.40600000   50.32200000   33.78200000
 N                 52.05100000   50.18800000   39.62300000
 N                 52.91100000   45.90000000   41.93600000
 N                 56.94300000   48.54600000   40.43600000
 N                 62.67500000   48.71400000   36.20600000
 N                 63.50900000   51.03200000   31.76200000
 N                 58.78900000   49.45600000   32.90100000
 N                 60.87700000   49.70800000   38.97000000
 N                 59.90000000   50.91400000   43.76400000
 N                 64.54500000   51.49200000   41.94400000
 N                 68.69500000   55.77400000   36.48700000
 N                 68.06000000   51.39200000   33.93400000
 N                 64.14600000   53.16000000   36.37000000
 N                 58.93800000   52.78700000   36.07000000
 N                 59.83700000   52.46400000   34.87800000
 N                 59.11600000   52.78700000   38.58500000
 N                 59.99000000   53.17500000   39.78800000
 N                 56.71800000   52.91400000   37.72000000
 N                 56.75600000   51.45600000   37.21100000
 N                 56.75900000   55.32800000   37.52200000
 N                 56.91200000   56.72300000   36.88000000
 N                 59.19400000   55.48200000   38.42300000
 N                 59.31000000   57.02800000   38.35800000
 N                 58.97200000   55.19800000   35.89900000
 N                 59.92600000   55.48000000   34.71000000
 O                 54.33300000   49.20600000   36.33400000
 O                 56.31200000   48.07600000   36.46600000
 O                 56.77400000   45.18200000   31.97100000
 O                 55.29900000   43.42800000   32.09700000
 O                 51.26900000   43.57400000   34.55000000
 O                 50.50800000   45.54800000   35.47800000
 O                 55.53300000   53.18500000   33.14200000
 O                 54.27300000   53.93200000   31.42400000
 O                 55.56800000   48.02900000   31.38700000
 O                 53.65400000   46.91200000   31.89800000
 O                 49.92900000   49.11300000   33.87100000
 O                 50.06800000   51.25100000   34.59100000
 O                 51.14300000   50.33200000   40.51700000
 O                 52.23800000   50.85100000   38.56100000
 O                 51.90600000   46.26600000   42.61900000
 O                 53.34600000   44.70200000   41.80300000
 O                 57.66000000   47.50100000   40.45000000
 O                 57.34500000   49.75300000   40.55900000
 O                 62.21300000   47.51600000   36.24100000
 O                 63.59700000   49.26200000   36.88600000
 O                 64.72200000   50.86700000   32.11100000
 O                 63.12300000   51.32500000   30.58000000
 O                 58.14700000   48.57100000   33.55200000
 O                 58.36700000   49.85300000   31.74700000
 O                 61.42900000   48.52500000   38.84200000
 O                 60.08900000   50.24100000   38.11700000
 O                 58.79200000   50.29500000   43.57100000
 O                 60.23100000   51.52600000   44.86300000
 O                 65.31000000   51.38300000   40.92400000
 O                 64.90900000   51.62000000   43.16400000
 O                 68.72300000   56.02900000   37.73200000
 O                 69.56600000   56.26100000   35.66700000
 O                 69.35500000   51.35500000   33.79800000
 O                 67.27200000   50.40000000   33.78700000
 O                 63.85900000   51.91400000   36.17700000
 O                 63.50200000   53.99500000   37.07100000
 O                 61.08800000   52.19900000   35.01400000
 O                 59.23800000   52.33800000   33.75600000
 O                 59.51100000   53.08100000   41.00900000
 O                 61.25300000   53.31100000   39.62400000
 O                 57.06500000   50.53800000   38.03300000
 O                 56.50300000   51.19500000   35.98600000
 O                 56.82300000   57.72600000   37.67100000
 O                 56.72900000   56.88400000   35.61900000
 O                 59.48100000   57.52800000   37.18200000
 O                 59.17800000   57.75000000   39.40100000
 O                 61.18100000   55.29500000   34.85300000
 O                 59.49800000   56.00000000   33.62300000

 1 43 1.0
 2 43 1.0
 3 43 1.0
 4 39 1.0
 5 41 1.0
 6 50 1.0
 7 50 1.0
 8 50 1.0
 9 46 1.0
 10 48 1.0
 11 57 1.0
 12 57 1.0
 13 57 1.0
 14 53 1.0
 15 55 1.0
 16 64 1.0
 17 64 1.0
 18 64 1.0
 19 60 1.0
 20 62 1.0
 21 71 1.0
 22 71 1.0
 23 71 1.0
 24 67 1.0
 25 69 1.0
 26 78 1.0
 27 78 1.0
 28 78 1.0
 29 74 1.0
 30 76 1.0
 31 79 1.0
 32 80 1.0
 33 81 1.0
 34 82 1.0
 35 83 1.0
 36 84 1.0
 37 38 1.0 42 1.0 43 1.0
 38 39 1.0 85 1.0
 39 40 1.0
 40 86 1.0 41 1.0
 41 42 1.0
 42 87 1.0
 43
 44 45 1.0 49 1.0 50 1.0
 45 46 1.0 88 1.0
 46 47 1.0
 47 48 1.0 89 1.0
 48 49 1.0
 49 90 1.0
 50
 51 52 1.0 56 1.0 57 1.0
 52 53 1.0 91 1.0
 53 54 1.0
 54 55 1.0 92 1.0
 55 56 1.0
 56 93 1.0
 57
 58 63 1.0 59 1.0 64 1.0
 59 94 1.0 60 1.0
 60 61 1.0
 61 62 1.0 95 1.0
 62 63 1.0
 63 96 1.0
 64
 65 66 1.0 70 1.0 71 1.0
 66 97 1.0 67 1.0
 67 68 1.0
 68 69 1.0 98 1.0
 69 70 1.0
 70 99 1.0
 71
 72 73 1.0 77 1.0 78 1.0
 73 74 1.0 100 1.0
 74 75 1.0
 75 76 1.0 101 1.0
 76 77 1.0
 77 102 1.0
 78
 79 103 1.0 113 1.0 82 1.0
 80 103 1.0 105 1.0 84 1.0
 81 105 1.0 107 1.0 83 1.0
 82 107 1.0 109 1.0
 83 109 1.0 111 1.0
 84 111 1.0 113 1.0
 85 115 1.0 116 1.0
 86 117 1.0 118 1.0
 87 119 1.0 120 1.0
 88 121 1.0 122 1.0
 89 123 1.0 124 1.0
 90 125 1.0 126 1.0
 91 127 1.0 128 1.0
 92 129 1.0 130 1.0
 93 131 1.0 132 1.0
 94 133 1.0 134 1.0
 95 135 1.0 136 1.0
 96 138 1.0 137 1.0
 97 139 1.0 140 1.0
 98 141 1.0 142 1.0
 99 143 1.0 144 1.0
 100 145 1.0 146 1.0
 101 147 1.0 148 1.0
 102 149 1.0 150 1.0
 103 104 1.0
 104 151 1.0 152 1.0
 105 106 1.0
 106 153 1.0 154 1.0
 107 108 1.0
 108 155 1.0 156 1.0
 109 110 1.0
 110 157 1.0 158 1.0
 111 112 1.0
 112 159 1.0 160 1.0
 113 114 1.0
 114 161 1.0 162 1.0
 115
 116
 117
 118
 119
 120
 121
 122
 123
 124
 125
 126
 127
 128
 129
 130
 131
 132
 133
 134
 135
 136
 137
 138
 139
 140
 141
 142
 143
 144
 145
 146
 147
 148
 149
 150
 151
 152
 153
 154
 155
 156
 157
 158
 159
 160
 161
 162

