#P B3LYP/6-31G* geom=connectivity

Generated by Multiwfn

  0  1
H      1.46114148    0.08324176   -2.21862892
H      1.67001888   -0.74380712    1.86346887
H     -2.27763279   -1.77835403    0.96694953
H     -0.64051396   -0.42176327   -2.83243943
H     -2.84899210    0.59780721    0.59760917
H      1.25424431    1.62647266    1.48491992
C      0.88842509   -0.00702855   -1.31512617
C      0.89861627   -0.53163487    1.03225052
C     -1.49410654   -1.14991205    0.44706176
C     -0.53884027   -0.34586213   -1.67477520
C     -1.76749294    0.35028033    0.29284857
C      0.64662389    0.96987631    0.81177605
N      1.48585339   -1.06361066   -0.31345574
N      3.00407923   -0.96631919   -0.28657330
N     -0.26289629   -1.36197088    1.48682249
N     -0.62612148   -1.07236730    2.94550383
N     -1.16040618   -1.71303533   -0.90833716
N     -0.24641198   -2.92088322   -0.97061959
N     -1.60084898    0.63915031   -1.24666074
N     -2.95252349    0.36566245   -1.88491335
N     -0.81844430    1.22050894    1.18443470
N     -1.14742195    2.69348472    0.99763515
N      0.96483928    1.35127577   -0.67398013
N      2.31281854    2.11406772   -0.78554340
O      3.54598603   -1.02429766    0.87890536
O      3.65236795   -0.62637099   -1.32772697
O     -1.85195963   -1.35691050    3.27604582
O      0.30276963   -0.99239756    3.81142711
O     -0.44593885   -3.81219592   -0.06028631
O      0.77261487   -2.92542848   -1.78857717
O     -3.97690526    0.70353459   -1.14347056
O     -3.12119651   -0.10933092   -3.06253966
O     -0.21960710    3.56349761    1.20471046
O     -2.33632710    3.03490250    0.58318198
O      2.75864963    2.83851584    0.17092069
O      3.03389267    1.94652464   -1.82212597
 
       1       7  0.8866
       2       8  0.7093
       3       9  0.7734
       4      10  0.7161
       5      11  0.7272
       6      12  0.7893
       7      10  1.0701      13  0.3991      23  0.5491
       8      12  0.9662      13  0.4117      15  0.6003
       9      11  1.0108      15  0.2721      17  0.5684
      10      17  0.1888      19  0.5779
      11      19  0.3860      21  0.4258
      12      21  0.4899      23  0.3973
      13      14  0.2713
      14      25  0.5887      26  0.6365
      15      16  0.2500
      16      27  0.5381      28  0.6503
      17      18  0.3028
      18      29  0.5816      30  0.5080
      19      20  0.2783
      20      31  0.5136      32  0.6063
      21      22  0.2865
      22      33  0.5833      34  0.5208
      23      24  0.2073
      24      35  0.6110      36  0.6420
      25
      26
      27
      28
      29
      30
      31
      32
      33
      34
      35
      36
