#P B3LYP/6-31G* geom=connectivity

Generated by Multiwfn

  0  1
H     -1.67747342    2.91928575   -0.24833197
H     -2.22138479    0.99856305   -0.27333367
H      0.53381115    3.22986270    0.17046840
H      1.63106729    1.72165219    0.34384777
C     -0.29165318    1.34612283    0.06157000
C     -0.01308694   -0.05693215   -0.11299654
N     -1.59154959    1.85385258   -0.07220361
N      0.75950956    2.21929800    0.39015992
N     -1.11191500   -1.06749442   -0.14433462
N      1.39187594   -0.50141351   -0.08356533
O     -0.70104766   -2.27989464   -0.22221959
O     -2.34203920   -0.76386163    0.17591529
O      2.20261769    0.16519735   -0.81087680
O      1.76884093   -1.38821687    0.81787037
 
       1       7  0.5415
       2       7  0.4999
       3       8  0.5879
       4       8  0.6941
       5       6  1.2933       7  0.9696       8  0.9540
       6       9  0.5902      10  0.6616
       7
       8
       9      11  0.6187      12  0.5156
      10      13  0.6394      14  0.4649
      11
      12
      13
      14
