#P B3LYP/6-31G* geom=connectivity

Generated by Multiwfn

  0  1
H     -1.91690708   -2.67505110   -0.08268224
H     -0.03777689   -2.49039042   -0.22196757
H     -3.17378303   -0.87720145    0.12793796
H     -2.30448282    0.83423457    0.36645893
C     -1.15350898   -0.80326776   -0.01329512
C      0.05339137    0.02348758    0.09099127
N     -1.04708506   -2.15085017   -0.29173334
N     -2.35772055   -0.26515962    0.34634730
N     -0.13799508    1.46855212   -0.06201406
N      1.40384920   -0.56161609    0.11331687
O      1.60174963   -1.83379114   -0.17235638
O     -1.30279826    2.06797787   -0.05187388
O      0.95555045    2.10616419   -0.36152455
O      2.37128768    0.21597480    0.41108713
 
       1       7  0.6380
       2       7  0.5256
       3       8  0.6229
       4       8  0.4409
       5       6  1.1940       7  1.0594       8  1.1111
       6       9  0.6735      10  0.6679
       7
       8
       9      12  0.4928      13  0.5415
      10      11  0.4714      14  0.6402
      11
      12
      13
      14
