%chk=/home_gsx/users/nsgsx_ln//yzh/Compatibility/gaussian/CL-20/3/20.chk
%mem=8000MB
%nproc=12

# b3lyp/TZVP EmpiricalDispersion=GD3BJ

"20selected"

0 1
 H                 32.46700000   51.77100000   44.01400000
 H                 34.01400000   53.28100000   43.07600000
 H                 36.29500000   54.45600000   46.31400000
 H                 34.55200000   56.14500000   46.16900000
 H                 31.76500000   53.30600000   47.80900000
 H                 33.58900000   51.66200000   48.03300000
 C                 32.94900000   52.45300000   44.81000000
 C                 33.92100000   53.47500000   44.19800000
 C                 34.15000000   55.05900000   46.03700000
 C                 35.26200000   54.02600000   46.14200000
 C                 32.59700000   53.38300000   47.02400000
 C                 33.71600000   52.36900000   47.13300000
 N                 30.62700000   52.18100000   45.79700000
 N                 35.36200000   53.29100000   44.73100000
 N                 33.55400000   54.89600000   44.58400000
 N                 36.47400000   53.86700000   43.83400000
 N                 31.85400000   53.08500000   45.60800000
 N                 34.91800000   50.87400000   45.44600000
 N                 33.57800000   51.47100000   45.88300000
 N                 34.04100000   55.98200000   43.59300000
 N                 33.09100000   54.82400000   47.12600000
 N                 35.08900000   53.03600000   47.28900000
 N                 35.20600000   53.70400000   48.67500000
 N                 31.94700000   55.86100000   47.02500000
 O                 30.25200000   51.42300000   44.81500000
 O                 35.07500000   50.49300000   44.23700000
 O                 36.28200000   53.98300000   42.57700000
 O                 35.83200000   50.69000000   46.33500000
 O                 34.06200000   55.77100000   42.33800000
 O                 37.68500000   53.88000000   44.31300000
 O                 34.10800000   57.20300000   44.03500000
 O                 32.18400000   57.03300000   46.53200000
 O                 29.88800000   52.34000000   46.83700000
 O                 30.77800000   55.55500000   47.47200000
 O                 34.49300000   53.19100000   49.60800000
 O                 36.08900000   54.60900000   48.85700000





