#P B3LYP/6-31G* geom=connectivity

Generated by Multiwfn

  0  1
H     -0.29997504   -0.84739777   -2.78297306
H      1.58440607    0.42562820   -2.16518206
H      1.79535460   -0.09325515    1.92804292
H      0.50207199    1.94711546    1.65217546
H     -2.87179778   -0.43939317    0.45281341
H     -1.55128670   -2.48402737    0.84728708
C     -0.29362621   -0.59493512   -1.65723494
C      0.90647633    0.27896268   -1.25739932
C      0.18065379    1.09833233    0.92095625
C      1.00126622   -0.16650384    1.12453109
C     -1.74403073   -0.34021997    0.27202577
C     -0.91874204   -1.59072239    0.48969587
N     -2.78942458   -0.55039391   -2.11422896
N      1.81407765   -0.42691746   -0.22182263
N      0.46306931    1.55401018   -0.56416770
N      3.26322997    0.09122593   -0.15538469
N     -1.61188498    0.01843059   -1.30905496
N      0.92768238   -2.74539759   -0.84568425
N     -0.40130810   -1.98875757   -0.91093903
N      1.46634873    2.72932246   -0.66769276
N     -1.31077736    0.81889651    1.16626371
N      0.18116089   -1.38348811    1.53927744
N     -0.43977768   -1.23265512    2.94376799
N     -2.16016060    2.09441511    0.95200588
O     -2.60895789   -0.84230282   -3.36392251
O      1.69680368   -2.75934629   -1.86536501
O      3.79197043    0.63699994   -1.18151006
O      1.20027490   -3.42564864    0.21380847
O      2.15540870    2.92030087   -1.72064604
O      4.01778839   -0.35826680    0.80624354
O      1.34561462    3.69193331    0.19804255
O     -1.63261478    3.25843545    1.15088788
O     -3.96568427   -0.53680211   -1.59535476
O     -3.39831554    1.97765119    0.61533910
O     -1.57102119   -1.80737581    3.12268489
O      0.24793211   -0.68920197    3.87304293
 
       1       7  0.7289
       2       8  0.7428
       3      10  0.7610
       4       9  0.7025
       5      11  0.7369
       6      12  0.7323
       7       8  0.9724      17  0.6206      19  0.3627
       8      14  0.4487      15  0.5418
       9      10  1.0389      15  0.3643      21  0.4932
      10      14  0.3393      22  0.5198
      11      12  1.0719      17  0.2665      21  0.5163
      12      19  0.4700      22  0.5002
      13      17  0.2428      25  0.5529      33  0.5997
      14      16  0.2231
      15      20  0.2094
      16      27  0.6368      30  0.5308
      17
      18      19  0.2642      26  0.6255      28  0.5805
      19
      20      29  0.6463      31  0.5385
      21      24  0.2318
      22      23  0.2233
      23      35  0.6122      36  0.6215
      24      32  0.5610      34  0.5839
      25
      26
      27
      28
      29
      30
      31
      32
      33
      34
      35
      36
