%chk=/home_gsx/users/nsgsx_ln//yzh/Compatibility/gaussian/FOX-7+TNT/Interfacial_1/7.chk
%mem=8000MB
%nproc=12

# b3lyp/TZVP EmpiricalDispersion=GD3BJ

"7selected"

  0  1
H     -1.53225006   -2.52709441    0.88260202
H     -3.07568911   -1.34937007   -0.28965219
H     -2.39269867    0.41632935   -0.75855328
H      0.27743615   -2.56765862    0.48527789
C      0.06011209    0.03514514   -0.01829100
C     -0.97314145   -0.91617626   -0.07171347
N      1.48577270   -0.36494842   -0.15070685
N     -0.30181860    1.50848223    0.08312435
N     -2.30099712   -0.58751832   -0.36491955
N     -0.75927082   -2.27448201    0.29670359
O      1.84367434   -1.54241502    0.24313388
O     -1.57301316    1.75614416   -0.09179545
O      0.56470212    2.25227566    0.64425363
O      2.33158355    0.45190096   -0.64922435
 



