#P B3LYP/6-31G* geom=connectivity

Generated by Multiwfn

  0  1
H     -1.53225006   -2.52709441    0.88260202
H     -3.07568911   -1.34937007   -0.28965219
H     -2.39269867    0.41632935   -0.75855328
H      0.27743615   -2.56765862    0.48527789
C      0.06011209    0.03514514   -0.01829100
C     -0.97314145   -0.91617626   -0.07171347
N      1.48577270   -0.36494842   -0.15070685
N     -0.30181860    1.50848223    0.08312435
N     -2.30099712   -0.58751832   -0.36491955
N     -0.75927082   -2.27448201    0.29670359
O      1.84367434   -1.54241502    0.24313388
O     -1.57301316    1.75614416   -0.09179545
O      0.56470212    2.25227566    0.64425363
O      2.33158355    0.45190096   -0.64922435
 
       1      10  0.7058
       2       9  0.5346
       3       9  0.4983
       4      10  0.5038
       5       6  1.4540       7  0.6191       8  0.5145
       6       9  0.9700      10  0.8765
       7      11  0.5775      14  0.6366
       8      12  0.5130      13  0.6521
       9
      10
      11
      12
      13
      14
