#P B3LYP/6-31G* geom=connectivity

Generated by Multiwfn

  0  1
H     -0.57262295    1.13963769    2.16992444
H      0.67363000   -0.78378234    2.55009942
H      2.40276104   -1.65284971   -1.07230154
H      0.25662553   -2.77373872   -1.07732210
H     -1.65881823    0.90299510   -1.77061107
H      0.41031754    2.09383569   -1.73055030
C     -0.24297792    0.70712596    1.19408748
C      0.38596355    1.16583456   -1.07718992
C      0.51836145   -0.62550370    1.44435644
C      1.56564173   -0.99005458   -0.72140571
C     -0.94332582    0.43314325   -1.06369180
C      0.22569491   -1.71811318   -0.67393765
N     -2.55562785    1.69068461    0.49198230
N      0.64666514    1.64910984    0.43601651
N      2.85954629   -1.67733788    1.46416461
N      1.90013562   -0.64483808    0.83327927
N      2.88887343    1.01377768   -1.57053651
N      0.18327508    3.10691505    0.63639519
N      1.52835541    0.27278874   -1.57085581
N     -1.54942586    0.53110917    0.34987193
N     -0.16745456   -1.87733219    0.84021419
N     -1.66033912   -1.98760743    1.12860291
N     -0.76748153   -1.01021336   -1.60250019
N     -2.08406236   -1.78856738   -1.77890576
O      2.84210072   -1.85756052    2.73257995
O     -2.87608890    2.04884404    1.69102631
O     -2.22445584   -1.20498620    1.96882511
O     -3.29530052    2.03168696   -0.49138068
O     -0.16544342    3.53870449    1.79704470
O      3.73209148   -2.25326452    0.69943563
O      3.96664152    0.31598013   -1.55375859
O      2.91365406    2.25597170   -1.89166257
O     -3.15033406   -1.16748939   -2.13304245
O     -2.31265833   -2.98879991    0.63564322
O     -1.97823397   -3.06791359   -1.97947406
O      0.15737000    3.88506269   -0.38606810
 
       1       7  0.7919
       2       9  0.7774
       3      10  0.7816
       4      12  0.7729
       5      11  0.8042
       6       8  0.7595
       7       9  0.9084      14  0.5901      20  0.4000
       8      11  1.0414      14  0.3065      19  0.5079
       9      16  0.5660      21  0.4553
      10      12  1.0303      16  0.2764      19  0.5446
      11      20  0.4657      23  0.4465
      12      21  0.3802      23  0.4916
      13      20  0.2158      26  0.5701      28  0.6293
      14      18  0.2295
      15      16  0.2281      25  0.6157      30  0.5527
      16
      17      19  0.2247      31  0.6050      32  0.6067
      18      29  0.5859      36  0.6008
      19
      20
      21      22  0.2680
      22      27  0.6131      34  0.5584
      23      24  0.2368
      24      33  0.6009      35  0.5389
      25
      26
      27
      28
      29
      30
      31
      32
      33
      34
      35
      36
