%chk=C:\Users\FQY\Desktop\1746.chk
# hf/3-21g geom=connectivity

"Created by VESTA"

0 1
 H                 50.44300000   49.37400000   36.71200000
 H                 51.17400000   49.87100000   38.24100000
 H                 50.28500000   48.33300000   38.09600000
 H                 45.58700000   49.97500000   37.80200000
 H                 47.75200000   51.57900000   41.34500000
 H                 38.87200000   52.38200000   32.52500000
 H                 38.59800000   52.74000000   34.38800000
 H                 42.41100000   51.35100000   32.91200000
 H                 41.21500000   52.63400000   31.96900000
 H                 45.13000000   52.51400000   31.78200000
 H                 44.65700000   51.98100000   33.64300000
 H                 48.46700000   53.00600000   32.92600000
 H                 47.15000000   53.46700000   31.69000000
 H                 52.13000000   52.49600000   32.62300000
 H                 51.55400000   51.35200000   34.22600000
 H                 55.48600000   51.67200000   32.91900000
 H                 53.90500000   52.21000000   31.86600000
 H                 40.50600000   54.20800000   41.79700000
 H                 39.82500000   54.22500000   43.71300000
 H                 42.05100000   51.13700000   42.45700000
 H                 41.86200000   52.61500000   41.28700000
 H                 45.04500000   53.80900000   42.68300000
 H                 45.08700000   52.35400000   43.99800000
 H                 48.71900000   54.27900000   43.08900000
 H                 46.81200000   54.85600000   42.30400000
 H                 41.82300000   52.45400000   37.46900000
 H                 41.38200000   53.66600000   38.90900000
 H                 45.26900000   52.82600000   37.99500000
 H                 43.83900000   52.33100000   36.83900000
 H                 51.43800000   53.28300000   41.97500000
 H                 52.10700000   53.53900000   43.64500000
 H                 54.48200000   51.44600000   40.97600000
 H                 52.63900000   51.76600000   40.60900000
 H                 48.30600000   52.68600000   37.00800000
 H                 48.07500000   53.59800000   38.70700000
 H                 51.75900000   53.04700000   37.20800000
 H                 50.23400000   52.31300000   36.24900000
 C                 48.97000000   50.05200000   38.40600000
 C                 47.74200000   49.62100000   37.78900000
 C                 46.56200000   50.22200000   38.33900000
 C                 46.54400000   50.82800000   39.62800000
 C                 47.77800000   51.11700000   40.28100000
 C                 48.99600000   50.71800000   39.68800000
 C                 50.28200000   49.42600000   37.86500000
 C                 40.48000000   52.18300000   33.79400000
 C                 40.81400000   51.75800000   35.10700000
 C                 46.62300000   52.34600000   33.21100000
 C                 47.07600000   52.07000000   34.52800000
 C                 53.57500000   51.72500000   33.75100000
 C                 54.00000000   51.02700000   34.92100000
 C                 40.90300000   52.69600000   43.07200000
 C                 40.92200000   52.21300000   44.41300000
 C                 46.80900000   53.41200000   43.65400000
 C                 47.46500000   52.79000000   44.73500000
 C                 43.30800000   53.27500000   38.56100000
 C                 43.61800000   54.12500000   39.71800000
 C                 53.34500000   52.53100000   42.33200000
 C                 54.36600000   52.24500000   43.32700000
 C                 49.98500000   53.30100000   38.06400000
 C                 50.58700000   53.99700000   39.17100000
 N                 47.69500000   48.75500000   36.56100000
 N                 45.21500000   51.19700000   40.29300000
 N                 50.29600000   51.10000000   40.34300000
 N                 39.18600000   52.75300000   33.51500000
 N                 41.45800000   52.05100000   32.76100000
 N                 39.77900000   51.78700000   36.20500000
 N                 42.14400000   51.16700000   35.31500000
 N                 45.26300000   52.25700000   32.81400000
 N                 47.63400000   52.80500000   32.31800000
 N                 46.10800000   52.22400000   35.61400000
 N                 48.54700000   51.88900000   34.90100000
 N                 52.23500000   52.01700000   33.60800000
 N                 54.47400000   52.12800000   32.73400000
 N                 53.07000000   50.63100000   35.97400000
 N                 55.41700000   50.46800000   34.93400000
 N                 40.27200000   53.92600000   42.76900000
 N                 41.57900000   51.97700000   42.07200000
 N                 39.63300000   52.26300000   45.18900000
 N                 42.15900000   51.60200000   44.99800000
 N                 45.41000000   53.33100000   43.55000000
 N                 47.57400000   54.16500000   42.74700000
 N                 46.72200000   52.19200000   45.85500000
 N                 48.99400000   52.63600000   44.81200000
 N                 41.97600000   53.07600000   38.30900000
 N                 44.25900000   52.58800000   37.80100000
 N                 42.58800000   54.80400000   40.57300000
 N                 45.10600000   54.38100000   39.98100000
 N                 52.09000000   53.04400000   42.74600000
 N                 53.57400000   52.09700000   40.99600000
 N                 53.97500000   52.19800000   44.73200000
 N                 55.79100000   51.91000000   42.94500000
 N                 48.60700000   53.07800000   38.02000000
 N                 50.78400000   52.83000000   37.02500000
 N                 49.71400000   54.65600000   40.21900000
 N                 52.03300000   53.89600000   39.35600000
 O                 48.63600000   47.90800000   36.28200000
 O                 46.66000000   48.90800000   35.82200000
 O                 44.14800000   50.76200000   39.76100000
 O                 45.28900000   51.74100000   41.45000000
 O                 50.30300000   51.51400000   41.56500000
 O                 51.38000000   51.00600000   39.65400000
 O                 40.07100000   51.30700000   37.37100000
 O                 38.60000000   52.23400000   35.95700000
 O                 42.41400000   50.81000000   36.52000000
 O                 42.97400000   50.81300000   34.34800000
 O                 46.55900000   52.48700000   36.79400000
 O                 44.84100000   52.11000000   35.32200000
 O                 48.74300000   51.03100000   35.82200000
 O                 49.48400000   52.43300000   34.21400000
 O                 53.49300000   50.20700000   37.12500000
 O                 51.78800000   50.81800000   35.78300000
 O                 55.63800000   49.78400000   36.01300000
 O                 56.30600000   50.83500000   34.07900000
 O                 39.34700000   51.36500000   46.02900000
 O                 38.86300000   53.23200000   44.78800000
 O                 42.29800000   51.63200000   46.27500000
 O                 43.01800000   51.17800000   44.13500000
 O                 47.29900000   52.16900000   46.99500000
 O                 45.46600000   51.84900000   45.73000000
 O                 49.44500000   51.66400000   45.48500000
 O                 49.72800000   53.27600000   43.98100000
 O                 42.59800000   54.50300000   41.82600000
 O                 41.62800000   55.42400000   39.98300000
 O                 45.24600000   55.17000000   40.95000000
 O                 46.04600000   53.88100000   39.23400000
 O                 54.86900000   51.73100000   45.56400000
 O                 52.84200000   52.71700000   45.09900000
 O                 56.67000000   52.27900000   43.81500000
 O                 56.00300000   51.48900000   41.76200000
 O                 48.67300000   55.24100000   39.76500000
 O                 49.88100000   54.40300000   41.47700000
 O                 52.40500000   54.29300000   40.53200000
 O                 52.80400000   53.32300000   38.47900000

 1 44 1.0
 2 44 1.0
 3 44 1.0
 4 40 1.0
 5 42 1.0
 6 64 1.0
 7 64 1.0
 8 65 1.0
 9 65 1.0
 10 68 1.0
 11 68 1.0
 12 69 1.0
 13 69 1.0
 14 72 1.0
 15 72 1.0
 16 73 1.0
 17 73 1.0
 18 76 1.0
 19 76 1.0
 20 77 1.0
 21 77 1.0
 22 80 1.0
 23 80 1.0
 24 81 1.0
 25 81 1.0
 26 84 1.0
 27 84 1.0
 28 85 1.0
 29 85 1.0
 30 88 1.0
 31 88 1.0
 32 89 1.0
 33 89 1.0
 34 92 1.0
 35 92 1.0
 36 93 1.0
 37 93 1.0
 38 39 1.0 43 1.0 44 1.0
 39 61 1.0 40 1.0
 40 41 1.0
 41 42 1.0 62 1.0
 42 43 1.0
 43 63 1.0
 44
 45 46 1.0 64 1.0 65 1.0
 46 66 1.0 67 1.0
 47 48 1.0 68 1.0 69 1.0
 48 70 1.0 71 1.0
 49 50 1.0 72 1.0 73 1.0
 50 74 1.0 75 1.0
 51 52 1.0 76 1.0 77 1.0
 52 78 1.0 79 1.0
 53 54 1.0 80 1.0 81 1.0
 54 82 1.0 83 1.0
 55 84 1.0 56 1.0 85 1.0
 56 86 1.0 87 1.0
 57 58 1.0 88 1.0 89 1.0
 58 90 1.0 91 1.0
 59 93 1.0 60 1.0 92 1.0
 60 94 1.0 95 1.0
 61 96 1.0 97 1.0
 62 98 1.0 99 1.0
 63 100 1.0 101 1.0
 64
 65
 66 102 1.0 103 1.0
 67 104 1.0 105 1.0
 68
 69
 70 106 1.0 107 1.0
 71 108 1.0 109 1.0
 72
 73
 74 110 1.0 111 1.0
 75 112 1.0 113 1.0
 76
 77
 78 114 1.0 115 1.0
 79 116 1.0 117 1.0
 80
 81
 82 118 1.0 119 1.0
 83 120 1.0 121 1.0
 84
 85
 86 122 1.0 123 1.0
 87 124 1.0 125 1.0
 88
 89
 90 126 1.0 127 1.0
 91 128 1.0 129 1.0
 92
 93
 94 130 1.0 131 1.0
 95 132 1.0 133 1.0
 96
 97
 98
 99
 100
 101
 102
 103
 104
 105
 106
 107
 108
 109
 110
 111
 112
 113
 114
 115
 116
 117
 118
 119
 120
 121
 122
 123
 124
 125
 126
 127
 128
 129
 130
 131
 132
 133

