%chk=/home_gsx/users/nsgsx_ln//yzh/Compatibility/gaussian/CL-20+TNT/4/20.chk
%mem=8000MB
%nproc=12

# b3lyp/TZVP EmpiricalDispersion=GD3BJ

"20selected"

0 1
 H                 63.06100000   56.19600000   40.66200000
 H                 66.15600000   56.96500000   43.47300000
 H                 62.88300000   59.03200000   45.39300000
 H                 61.44400000   57.61600000   41.48200000
 H                 61.63900000   56.92400000   45.70000000
 H                 65.19400000   54.95200000   44.15500000
 C                 63.28600000   56.60100000   41.71900000
 C                 65.02100000   57.05900000   43.40500000
 C                 63.04700000   58.25400000   44.48800000
 C                 62.12100000   57.31500000   42.31800000
 C                 62.37400000   56.92000000   44.79200000
 C                 64.44000000   55.72700000   43.82900000
 N                 64.50800000   57.37700000   41.76900000
 N                 65.54400000   57.10500000   40.67600000
 N                 64.66600000   58.10900000   44.37100000
 N                 65.28800000   57.81500000   45.74800000
 N                 62.49800000   58.81900000   43.19600000
 N                 63.49000000   59.66100000   42.43000000
 N                 61.46900000   56.62100000   43.42000000
 N                 61.10100000   55.18300000   43.06200000
 N                 63.51300000   55.82600000   45.01700000
 N                 62.95800000   54.45600000   45.44000000
 N                 63.75500000   55.20600000   42.62100000
 N                 64.76500000   54.35700000   41.83700000
 O                 66.76800000   56.95300000   40.99700000
 O                 65.18300000   57.13500000   39.42700000
 O                 64.76000000   58.32400000   46.81100000
 O                 66.16300000   56.87100000   45.81800000
 O                 64.35500000   60.44000000   43.00100000
 O                 63.44400000   59.62800000   41.14200000
 O                 60.49200000   54.48200000   43.95100000
 O                 61.48400000   54.68800000   41.92100000
 O                 63.49500000   53.35100000   45.04800000
 O                 61.96400000   54.38400000   46.24800000
 O                 65.87600000   54.06900000   42.39500000
 O                 64.58900000   54.15200000   40.56800000









