%chk=/home_gsx/users/nsgsx_ln//yzh/Compatibility/gaussian/CL-20+TNT/3/20.chk
%mem=8000MB
%nproc=12

# b3lyp/TZVP EmpiricalDispersion=GD3BJ

"20selected"

0 1
 H                 42.61300000   52.37500000   52.93000000
 H                 45.48100000   54.17300000   55.44900000
 H                 42.69000000   52.47400000   58.14300000
 H                 41.15200000   51.34400000   54.38600000
 H                 40.94800000   54.03600000   57.64800000
 H                 43.76500000   55.76900000   54.84800000
 C                 42.71000000   52.79700000   53.97700000
 C                 44.37900000   53.73600000   55.42700000
 C                 42.71700000   52.77900000   57.02600000
 C                 41.76800000   52.11400000   54.95800000
 C                 41.63300000   53.86400000   56.70200000
 C                 43.29000000   54.83000000   55.12300000
 N                 44.15400000   52.63700000   54.40200000
 N                 45.12700000   52.71600000   53.21500000
 N                 44.11900000   53.35600000   56.92500000
 N                 45.11900000   52.26700000   57.37100000
 N                 42.54500000   51.53000000   56.14100000
 N                 41.72000000   50.50200000   56.97100000
 N                 40.77200000   53.10800000   55.74500000
 N                 39.77600000   53.85800000   54.86700000
 N                 42.32800000   55.18700000   56.28000000
 N                 41.29300000   56.29100000   56.07500000
 N                 42.46600000   54.38100000   53.91400000
 N                 43.03600000   55.05800000   52.67500000
 O                 46.37400000   52.76100000   53.38400000
 O                 44.63900000   52.46600000   52.03300000
 O                 44.92600000   51.55200000   58.42000000
 O                 46.16800000   52.14600000   56.60200000
 O                 42.23000000   50.02200000   58.02700000
 O                 40.72400000   50.01600000   56.34700000
 O                 38.78500000   54.41300000   55.41700000
 O                 39.96000000   53.84100000   53.60300000
 O                 41.49900000   57.11900000   55.09900000
 O                 40.37800000   56.40400000   56.95700000
 O                 43.50000000   56.28400000   52.77300000
 O                 42.75100000   54.51900000   51.55500000








