#P B3LYP/6-31G* geom=connectivity

Generated by Multiwfn

  0  1
H     -0.39785478    1.29137262   -2.16287035
H      0.80580403    2.11937925    1.79556362
H      2.11606181   -1.85543886    1.14906260
H      0.41572054   -0.82806522   -2.56721726
H     -0.08126653   -2.79946062    1.14704283
H     -1.45685209    1.26362321    1.76177214
C     -0.15472267    0.75312341   -1.19598020
C      0.61773037    1.23680747    1.02643920
C      1.35471993   -1.12284413    0.67460870
C      0.40408082   -0.64080555   -1.44278926
C     -0.10444963   -1.69203934    0.73862434
C     -0.84061553    0.65202936    1.10665655
N      0.83031400    1.61088837   -0.43092920
N      0.63377762    3.11127799   -0.69952451
N      1.51520010    0.08109358    1.58757864
N      2.99880043    0.50892833    1.56066228
N      1.77151006   -0.80469502   -0.77379634
N      2.56616221   -2.03943957   -1.29364520
N     -0.40336551   -1.83287103   -0.71723339
N     -1.84465459   -2.01636404   -1.18028425
N     -0.97787101   -0.78885643    1.65122158
N     -2.37057090   -1.39161668    1.82190574
N     -1.47427611    0.71839002   -0.28486368
N     -2.32445645    1.97941418   -0.35808564
O      1.25130685    3.98773104   -0.03915893
O      0.01851241    3.43910627   -1.80031756
O      3.95599215   -0.34228844    1.65060135
O      3.19023667    1.79627419    1.44887772
O      3.67242997   -2.32655015   -0.74649334
O      2.16806130   -2.47136092   -2.42171772
O     -2.43951835   -3.09097511   -0.89053580
O     -2.36705989   -1.09399359   -1.89314219
O     -3.37009843   -0.56683257    1.85756920
O     -2.43967095   -2.64421542    2.05458487
O     -2.97642603    2.37369926    0.71310573
O     -2.60202343    2.40664473   -1.52709232
 
       1       7  0.7580
       2       8  0.6702
       3       9  0.7153
       4      10  0.7571
       5      11  0.6835
       6      12  0.8552
       7      10  1.0369      13  0.5446      23  0.3275
       8      12  0.8483      13  0.5286      15  0.4183
       9      11  0.8768      15  0.5420      17  0.4783
      10      17  0.5259      19  0.3079
      11      19  0.5646      21  0.4500
      12      21  0.4524      23  0.5038
      13      14  0.2285
      14      25  0.7079      26  0.5266
      15      16  0.2434
      16      27  0.5967      28  0.5185
      17      18  0.2093
      18      29  0.6643      30  0.6579
      19      20  0.2676
      20      31  0.6978      32  0.6292
      21      22  0.2639
      22      33  0.5499      34  0.6279
      23      24  0.2642
      24      35  0.4789      36  0.6482
      25
      26
      27
      28
      29
      30
      31
      32
      33
      34
      35
      36
