%chk=C:\Users\FQY\Desktop\inter-20\1.chk
# hf/3-21g geom=connectivity

structure

0 1
 H                 44.76000000   55.78300000   43.40500000
 H                 47.88600000   55.62900000   46.25200000
 H                 44.72100000   58.16700000   48.02600000
 H                 43.03900000   57.02500000   44.34800000
 H                 43.26900000   56.16400000   48.44400000
 H                 46.41300000   53.71000000   46.55000000
 C                 44.92700000   55.85400000   44.52400000
 C                 46.72600000   55.88700000   46.23600000
 C                 44.84200000   57.38800000   47.22100000
 C                 43.77500000   56.72300000   45.20300000
 C                 44.03500000   56.12000000   47.56900000
 C                 45.82300000   54.68500000   46.49200000
 N                 46.30600000   56.41700000   44.72900000
 N                 47.24600000   56.04300000   43.57800000
 N                 46.39900000   57.03300000   47.19200000
 N                 47.07000000   56.80300000   48.53900000
 N                 44.28100000   57.96800000   45.96200000
 N                 45.29400000   58.80200000   45.16900000
 N                 43.10300000   55.95800000   46.32800000
 N                 41.65500000   56.40500000   46.44100000
 N                 44.92500000   54.91400000   47.76400000
 N                 44.06500000   53.62600000   47.91700000
 N                 44.96700000   54.44900000   45.22000000
 N                 45.64700000   53.48400000   44.23100000
 O                 48.51800000   56.14200000   43.76100000
 O                 46.77100000   56.04400000   42.38800000
 O                 46.88300000   57.65800000   49.49800000
 O                 47.90400000   55.81600000   48.64000000
 O                 46.16800000   59.52300000   45.78200000
 O                 45.34500000   58.63200000   43.90000000
 O                 41.14100000   56.45300000   47.59700000
 O                 40.93800000   56.53900000   45.37800000
 O                 44.61600000   52.46400000   47.83400000
 O                 42.90000000   53.80300000   48.40100000
 O                 46.13000000   52.41200000   44.79000000
 O                 45.56300000   53.54500000   42.97200000

 1 7 1.0
 2 8 1.0
 3 9 1.0
 4 10 1.0
 5 11 1.0
 6 12 1.0
 7 10 1.0 13 1.0 23 1.0
 8 12 1.0 13 1.0 15 1.0
 9 11 1.0 15 1.0 17 1.0
 10 17 1.0 19 1.0
 11 19 1.0 21 1.0
 12 21 1.0 23 1.0
 13 14 1.0
 14 25 1.0 26 2.0
 15 16 1.0
 16 27 1.0 28 2.0
 17 18 1.0
 18 29 1.0 30 2.0
 19 20 1.0
 20 31 1.0 32 2.0
 21 22 1.0
 22 33 1.0 34 2.0
 23 24 1.0
 24 35 1.0 36 2.0
 25
 26
 27
 28
 29
 30
 31
 32
 33
 34
 35
 36

