%chk=C:\Users\FQY\Desktop\inter-20\4.chk
# hf/3-21g geom=connectivity

structure

0 1
 H                 63.06100000   56.19600000   40.66200000
 H                 66.15600000   56.96500000   43.47300000
 H                 62.88300000   59.03200000   45.39300000
 H                 61.44400000   57.61600000   41.48200000
 H                 61.63900000   56.92400000   45.70000000
 H                 65.19400000   54.95200000   44.15500000
 C                 63.28600000   56.60100000   41.71900000
 C                 65.02100000   57.05900000   43.40500000
 C                 63.04700000   58.25400000   44.48800000
 C                 62.12100000   57.31500000   42.31800000
 C                 62.37400000   56.92000000   44.79200000
 C                 64.44000000   55.72700000   43.82900000
 N                 64.50800000   57.37700000   41.76900000
 N                 65.54400000   57.10500000   40.67600000
 N                 64.66600000   58.10900000   44.37100000
 N                 65.28800000   57.81500000   45.74800000
 N                 62.49800000   58.81900000   43.19600000
 N                 63.49000000   59.66100000   42.43000000
 N                 61.46900000   56.62100000   43.42000000
 N                 61.10100000   55.18300000   43.06200000
 N                 63.51300000   55.82600000   45.01700000
 N                 62.95800000   54.45600000   45.44000000
 N                 63.75500000   55.20600000   42.62100000
 N                 64.76500000   54.35700000   41.83700000
 O                 66.76800000   56.95300000   40.99700000
 O                 65.18300000   57.13500000   39.42700000
 O                 64.76000000   58.32400000   46.81100000
 O                 66.16300000   56.87100000   45.81800000
 O                 64.35500000   60.44000000   43.00100000
 O                 63.44400000   59.62800000   41.14200000
 O                 60.49200000   54.48200000   43.95100000
 O                 61.48400000   54.68800000   41.92100000
 O                 63.49500000   53.35100000   45.04800000
 O                 61.96400000   54.38400000   46.24800000
 O                 65.87600000   54.06900000   42.39500000
 O                 64.58900000   54.15200000   40.56800000

 1 7 1.0
 2 8 1.0
 3 9 1.0
 4 10 1.0
 5 11 1.0
 6 12 1.0
 7 10 1.0 13 1.0 23 1.0
 8 12 1.0 15 2.0
 9 11 1.0 15 1.0 17 1.0
 10 19 2.0
 11 19 1.0 21 1.0
 12 21 1.0 23 1.0
 13 14 1.0
 14 25 1.0 26 2.0
 15 16 1.0
 16 27 1.0 28 2.0
 17 18 1.0
 18 29 1.0 30 2.0
 19 20 1.0
 20 31 1.0 32 2.0
 21 22 1.0
 22 33 1.0 34 2.0
 23 24 1.0
 24 35 1.0 36 2.0
 25
 26
 27
 28
 29
 30
 31
 32
 33
 34
 35
 36

