%chk=/home_gsx/users/nsgsx_ln//yzh/Compatibility/gaussian/CL-20/5/20.chk
%mem=8000MB
%nproc=12

# b3lyp/TZVP EmpiricalDispersion=GD3BJ

"20selected"

0 1
 H                 64.31300000   55.69400000   45.22600000
 H                 63.42500000   56.24900000   41.21400000
 H                 61.33000000   57.23100000   41.23000000
 H                 60.39800000   57.35900000   45.29100000
 H                 61.43400000   59.47100000   44.79800000
 H                 65.19000000   57.77800000   44.70800000
 C                 61.92000000   58.60400000   44.24900000
 C                 61.78100000   57.27700000   42.25800000
 C                 61.32100000   57.25100000   44.62100000
 C                 63.58400000   56.27000000   44.58100000
 C                 63.20400000   56.66700000   42.22800000
 C                 64.15900000   57.64200000   44.23600000
 N                 61.67900000   55.11800000   45.94600000
 N                 60.16900000   55.42400000   42.40000000
 N                 64.54800000   54.59800000   42.91000000
 N                 63.36300000   55.49600000   43.27800000
 N                 62.27000000   56.46500000   45.44200000
 N                 60.90400000   56.50400000   43.17700000
 N                 61.70600000   58.79400000   42.76400000
 N                 62.77300000   59.72700000   42.15800000
 N                 65.67500000   57.27400000   42.13900000
 N                 64.25700000   57.67000000   42.56200000
 N                 63.41400000   58.84000000   44.69400000
 N                 63.55700000   59.00800000   46.23100000
 O                 60.40100000   55.04300000   46.07400000
 O                 59.45300000   54.53800000   43.03100000
 O                 60.20500000   55.44700000   41.11300000
 O                 62.46500000   54.32100000   46.58100000
 O                 64.64400000   54.09400000   41.73200000
 O                 65.35900000   54.27800000   43.84900000
 O                 65.92400000   57.01800000   40.89600000
 O                 63.29400000   59.46400000   41.00500000
 O                 66.57900000   57.12800000   43.03900000
 O                 63.25200000   60.69400000   42.87300000
 O                 63.05100000   60.01200000   46.84300000
 O                 64.35200000   58.21600000   46.87500000






