#P B3LYP/6-31G* geom=connectivity

Generated by Multiwfn

  0  1
H      0.40534790    0.27156213   -2.35226814
H     -0.36840702   -2.46764940    0.66281669
H      0.30556065   -1.38665436    2.59435036
H      1.79504036    2.23237710    1.15880500
H     -0.51478284    2.64450404    1.68010834
H     -1.78614570    0.69146619   -1.71859208
C     -0.34353947    1.62012153    1.22119422
C      0.22249612   -0.64743228    1.75235749
C      1.10719852    1.38447584    0.81177466
C      0.31663515    0.23949365   -1.22517291
C     -0.28069366   -1.36780906    0.47729421
C     -1.12552738    0.51333891   -0.80420972
N      2.71686663    1.26505845   -1.14480043
N      2.64059339   -1.05712327    1.94542714
N      0.48307477   -2.24121979   -1.80437896
N      0.70467439   -1.16091166   -0.74142038
N      1.24413849    1.39237317   -0.66254657
N      1.57071862   -0.06420614    1.52135456
N     -0.69407660    0.56755909    2.24898654
N     -2.20670515    0.27068667    2.25495348
N     -2.35681240   -1.78837227   -0.93517474
N     -1.60973109   -0.86014967    0.02749930
N     -1.38579485    1.70395610    0.04118045
N     -1.23271987    3.00268176   -0.79603021
O      3.63906363    1.67262845   -0.34559309
O      3.89540144   -0.80962390    1.70044997
O      2.29306929   -2.10179017    2.61332838
O      2.92412099    1.15961714   -2.41056413
O      0.49973952   -3.48540366   -1.48399672
O      0.40488640   -1.85976695   -3.02512558
O     -2.63362840   -2.99833926   -0.57194093
O     -2.63533915   -0.94251077    2.37513614
O     -2.62992665   -1.37369850   -2.11922975
O     -3.04260766    1.22336450    1.99146352
O     -1.47393337    4.15440654   -0.29210354
O     -1.03279770    2.90473355   -2.07057415
 
       1      10  0.7629
       2      11  0.7890
       3       8  0.7850
       4       9  0.7456
       5       7  0.7652
       6      12  0.7413
       7       9  1.0326      19  0.5644      23  0.3740
       8      11  0.9336      18  0.6249      19  0.3344
       9      17  0.6705      18  0.1191
      10      12  1.0064      16  0.4983      17  0.3667
      11      16  0.3649      22  0.5977
      12      22  0.2055      23  0.6621
      13      17  0.2127      25  0.5951      28  0.5933
      14      18  0.2204      26  0.5298      27  0.5801
      15      16  0.2463      29  0.5862      30  0.6132
      16
      17
      18
      19      20  0.2438
      20      32  0.5684      34  0.5541
      21      22  0.2503      31  0.5586      33  0.6004
      22
      23      24  0.2093
      24      35  0.6189      36  0.5651
      25
      26
      27
      28
      29
      30
      31
      32
      33
      34
      35
      36
