%chk=C:\Users\FQY\Desktop\relax\relax.chk
# hf/3-21g geom=connectivity

structure

0 1
 H                 63.73740000   56.88910000   37.48340000
 H                 59.86060000   57.44000000   38.81670000
 H                 63.28200000   58.07190000   39.07190000
 H                 61.47910000   57.94590000   40.02060000
 C                 61.30970000   56.04990000   37.31360000
 C                 61.83420000   56.99620000   38.23080000
 N                 59.85310000   55.78540000   37.16350000
 N                 62.29000000   55.31470000   36.41540000
 N                 63.18300000   57.29200000   38.32740000
 N                 60.95540000   57.64710000   39.14310000
 O                 59.57090000   54.92740000   36.26840000
 O                 63.31220000   54.75160000   36.91950000
 O                 61.97110000   55.38200000   35.18390000
 O                 58.97690000   56.45710000   37.83970000

 1 9 1.0
 2 10 1.0
 3 9 1.0
 4 10 1.0
 5 6 2.0 7 1.0 8 1.0
 6 9 1.0 10 1.0
 7 11 1.0 14 2.0
 8 12 2.0 13 1.0
 9
 10
 11
 12
 13
 14

