%chk=C:\Users\FQY\Desktop\relax\relax (3).chk
# hf/3-21g geom=connectivity

structure

0 1
 H                 50.13320000   54.76850000   47.57360000
 H                 48.16490000   55.55420000   47.55830000
 H                 51.60210000   55.65140000   48.32980000
 H                 47.70060000   56.62200000   49.11490000
 C                 49.68800000   56.35690000   48.66870000
 C                 50.01400000   57.23450000   49.69630000
 N                 50.64410000   55.60970000   47.90970000
 N                 48.30230000   56.04950000   48.49820000
 N                 48.98140000   57.94110000   50.54380000
 N                 51.45390000   57.48060000   50.09230000
 O                 52.32660000   56.62450000   49.66030000
 O                 49.24540000   57.88170000   51.80870000
 O                 51.72440000   58.43770000   50.91880000
 O                 47.85220000   58.26970000   50.04000000

 1 7 1.0
 2 8 1.0
 3 7 1.0
 4 8 1.0
 5 6 2.0 7 1.0 8 1.0
 6 9 1.0 10 1.0
 7
 8
 9 12 1.0 14 2.0
 10 11 2.0 13 1.0
 11
 12
 13
 14

