%chk=C:\Users\FQY\Desktop\relax\relax (4).chk
# hf/3-21g geom=connectivity

structure

0 1
 H                 38.61710000   60.11390000   47.62870000
 H                 40.10770000   61.06790000   48.58230000
 H                 42.12160000   60.40970000   48.32930000
 H                 42.63810000   59.11190000   47.00790000
 C                 40.18250000   58.78660000   46.17400000
 C                 40.59340000   59.66880000   47.16120000
 N                 38.75360000   58.48220000   45.87810000
 N                 39.66360000   60.37670000   47.89490000
 N                 41.99310000   59.77180000   47.50810000
 N                 41.18970000   58.12660000   45.24490000
 O                 38.46140000   57.53760000   45.02810000
 O                 37.83330000   59.08510000   46.53860000
 O                 40.93310000   58.03050000   44.00490000
 O                 42.26260000   57.64360000   45.77480000

 1 8 1.0
 2 8 1.0
 3 9 1.0
 4 9 1.0
 5 6 2.0 7 1.0 10 1.0
 6 8 1.0 9 1.0
 7 11 2.0 12 1.0
 8
 9
 10 13 1.0 14 2.0
 11
 12
 13
 14

