%chk=C:\Users\FQY\Desktop\relax\relax (5).chk
# hf/3-21g geom=connectivity

structure

0 1
 H                 32.93730000   54.06320000   32.68310000
 H                 35.65110000   55.21790000   31.05200000
 H                 33.73770000   54.44180000   31.01690000
 H                 36.98910000   55.08320000   32.56520000
 C                 34.90020000   54.20240000   34.05120000
 C                 34.88540000   54.55530000   32.67730000
 N                 36.03460000   54.95040000   31.99830000
 N                 36.21320000   53.93210000   34.75950000
 N                 33.65640000   54.25360000   34.88470000
 N                 33.60160000   54.55620000   32.02750000
 O                 32.68880000   54.98930000   34.44880000
 O                 37.27580000   54.31370000   34.09330000
 O                 36.20310000   53.46140000   35.91900000
 O                 33.71680000   53.60460000   35.99120000

 1 10 1.0
 2 7 1.0
 3 10 1.0
 4 7 1.0
 5 6 2.0 8 1.0 9 1.0
 6 7 1.0 10 1.0
 7
 8 12 2.0 13 1.0
 9 11 1.0 14 2.0
 10
 11
 12
 13
 14

