%chk=/home_gsx/users/nsgsx_ln//yzh/Compatibility/gaussian/FOX-7/Interfacial_1/7.chk
%mem=8000MB
%nproc=12

# b3lyp/TZVP EmpiricalDispersion=GD3BJ

"7selected"

  0  1
H      0.41704518   -2.45682283    0.44862013
H     -2.45161020    0.50110698    0.08499186
H     -1.57034607   -2.86519680    0.33353772
H     -2.91201801   -1.48198824   -0.33951993
C      0.01094710    0.03912744   -0.03318125
C     -0.96121529   -0.98686378    0.08548670
N     -0.33789069    1.48369454   -0.10875846
N      1.47470154   -0.36792699   -0.03325468
N     -0.63812941   -2.32595243    0.22167676
N     -2.34351196   -0.65246175    0.01010279
O      0.66856209    2.25770684   -0.17920418
O      1.87587263   -1.29163202   -0.80909103
O      2.16329061    0.28020735    0.82031765
O     -1.56618135    1.88219849   -0.01575086
 


