#P B3LYP/6-31G* geom=connectivity

Generated by Multiwfn

  0  1
H      0.41704518   -2.45682283    0.44862013
H     -2.45161020    0.50110698    0.08499186
H     -1.57034607   -2.86519680    0.33353772
H     -2.91201801   -1.48198824   -0.33951993
C      0.01094710    0.03912744   -0.03318125
C     -0.96121529   -0.98686378    0.08548670
N     -0.33789069    1.48369454   -0.10875846
N      1.47470154   -0.36792699   -0.03325468
N     -0.63812941   -2.32595243    0.22167676
N     -2.34351196   -0.65246175    0.01010279
O      0.66856209    2.25770684   -0.17920418
O      1.87587263   -1.29163202   -0.80909103
O      2.16329061    0.28020735    0.82031765
O     -1.56618135    1.88219849   -0.01575086
 
       1       9  0.5200
       2      10  0.3391
       3       9  0.5382
       4      10  0.5698
       5       6  1.3911       7  0.6012       8  0.5269
       6       9  1.0396      10  0.8814
       7      11  0.6578      14  0.5595
       8      12  0.6577      13  0.6596
       9
      10
      11
      12
      13
      14
