%chk=/home_gsx/users/nsgsx_ln//yzh/Compatibility/gaussian/FOX-7/Interfacial_3/7.chk
%mem=8000MB
%nproc=12

# b3lyp/TZVP EmpiricalDispersion=GD3BJ

"7selected"

  0  1
H      3.13452072   -0.66171771    0.43630823
H      2.15288614   -2.47856927   -0.04035459
H      2.39492122    1.03278474    0.13519023
H      0.21972218   -2.43824631    0.15971051
C      1.21734903   -0.65604673   -0.05854746
C     -0.00749938   -0.00018672   -0.10341978
N      2.48728256    0.00359039   -0.03278380
N      1.18544325   -2.06749281    0.16624465
N     -1.33623089   -0.71697320   -0.03639548
N     -0.08890389    1.51064412   -0.14158653
O      0.98831743    2.15589454    0.18149648
O     -2.16106329   -0.16695674    0.79446539
O     -1.23015239    2.07367990   -0.37148974
O     -1.45888740   -1.89077150   -0.53039748
 



