#P B3LYP/6-31G* geom=connectivity

Generated by Multiwfn

  0  1
H     -1.44787968    0.90549832   -2.03796502
H     -1.83994964   -0.01894590    2.07210615
H      1.32041364   -2.69160210    0.49896988
H      0.27505391   -0.40979758   -2.87172191
H      2.93904184   -0.78087638    0.34338398
H     -0.29687316    1.84771241    1.79715944
C     -0.83845922    0.50331388   -1.17081717
C     -1.03187397   -0.16588529    1.21312855
C      0.80362146   -1.72713439    0.23020444
C      0.34139170   -0.42673372   -1.70585851
C      1.80101075   -0.55061510    0.26475831
C     -0.03381546    0.98184779    1.10205651
N     -1.79418515   -0.20549384   -0.25167922
N     -3.19837269    0.40467307   -0.31672323
N     -0.31329684   -1.50713070    1.35056461
N      0.11732522   -1.72852124    2.79385975
N      0.30273339   -1.87404501   -1.17112721
N     -1.08226947   -2.52555435   -1.25987776
N      1.68615708    0.03588901   -1.17668908
N      2.76602057   -0.30491505   -2.19011370
N      1.43943527    0.47197360    1.31743894
N      2.34925389    1.72781124    1.18684446
N     -0.21508929    1.64166709   -0.29013396
N     -1.24001648    2.79076733   -0.26117025
O     -4.02675478    0.15382005    0.63833168
O     -3.63797413    0.78363993   -1.45902822
O      0.77446588   -2.80428910    3.10460833
O     -0.29518052   -0.88345787    3.68584232
O     -1.41726055   -3.46088960   -0.43986865
O     -1.93813340   -2.00367696   -2.05800238
O      3.90435417   -0.64012858   -1.74890572
O      2.57064723   -0.06954222   -3.44248859
O      2.04686578    2.81578008    1.80782694
O      3.50358733    1.51526879    0.69171820
O     -1.07889821    3.61434612    0.73417536
O     -2.02133470    3.10030488   -1.20434910
 
       1       7  0.7594
       2       8  0.6626
       3       9  0.7817
       4      10  0.7071
       5      11  0.7014
       6      12  0.7395
       7      10  0.7943      13  0.5838      23  0.4160
       8      12  1.0385      13  0.2319      15  0.5297
       9      11  0.9716      15  0.3207      17  0.6066
      10      17  0.4673      19  0.5539
      11      19  0.3850      21  0.5784
      12      21  0.4105      23  0.4296
      13      14  0.2354
      14      25  0.5809      26  0.6113
      15      16  0.2618
      16      27  0.5476      28  0.5529
      17      18  0.2595
      18      29  0.5780      30  0.6143
      19      20  0.2661
      20      31  0.6896      32  0.5699
      21      22  0.2186
      22      33  0.5748      34  0.6514
      23      24  0.2293
      24      35  0.5421      36  0.6831
      25
      26
      27
      28
      29
      30
      31
      32
      33
      34
      35
      36
